/batch
/config,noeldb,1     ! force off writing results to database
*get,_wallstrt,active,,time,wall
! ANSYS input file written by Workbench version 2019 R1
! File used for geometry attach: C:\Users\HARSH\OneDrive\Desktop\IIT ROPAR\Skills\Ansys\Prac4\model.IGS
/title,unsaved_project--Static Structural (A5)
*DIM,_wb_ProjectScratch_dir,string,248
_wb_ProjectScratch_dir(1) = 'C:\Users\HARSH\AppData\Local\Temp\WB_HARSH-SHAH_HARSH_8768_2\_ProjectScratch\Scr7AFC\'
*DIM,_wb_SolverFiles_dir,string,248
_wb_SolverFiles_dir(1) = 'C:\Users\HARSH\AppData\Local\Temp\WB_HARSH-SHAH_HARSH_8768_2\unsaved_project_files\dp0\SYS\MECH\'
*DIM,_wb_userfiles_dir,string,248
_wb_userfiles_dir(1) = 'C:\Users\HARSH\AppData\Local\Temp\WB_HARSH-SHAH_HARSH_8768_2\unsaved_project_files\user_files\'
/com,--- Data in consistent NMM units. See Solving Units in the help system for more information.
/units,MPA
/nopr
/wb,file,start              !  signify a WB generated input file
/prep7
! Turn off shape checking because checks already performed inside WB mesher.
! See help system for more information.
SHPP,OFF,,NOWARN
/nolist
etcon,set             ! allow ANSYS to choose best KEYOP's for 180x elements
/com,*********** Nodes for the whole assembly ***********
nblock,3,,2448
(1i9,3e20.9e3)
        1     3.250845917E+01     1.887847770E+01     5.000000000E+00
        2     5.150095846E+01     8.142490448E+00     5.000000000E+00
        3     4.853665715E+01     1.448517258E+00     5.000000000E+00
        4     4.703146621E+01    -5.412452756E+00     5.000000000E+00
        5     4.731496243E+01    -1.385634848E+01     5.000000000E+00
        6     4.826620937E+01    -2.338300849E+01     5.000000000E+00
        7     4.004857089E+01    -2.313836762E+01     5.000000000E+00
        8     3.099626627E+01     2.525152070E+01     5.000000000E+00
        9     4.739308668E+01     1.477096056E+01     5.000000000E+00
       10     3.949633370E+01     2.510176937E+01     5.000000000E+00
       11     4.802612029E+01     2.427412430E+01     5.000000000E+00
       12    -4.375768546E+01    -3.920894622E-01     5.000000000E+00
       13     3.225030482E+01    -2.361318952E+01     5.000000000E+00
       14     4.844276843E+01    -3.248200641E+01     5.000000000E+00
       15     3.978600396E+01    -3.235864441E+01     5.000000000E+00
       16    -4.121119028E+01    -1.640675312E+01     5.000000000E+00
       17     1.946518476E+01     3.745657424E+01     5.000000000E+00
       18     2.814065640E+01     3.291065617E+01     5.000000000E+00
       19     3.890184122E+01     3.301624486E+01     5.000000000E+00
       20     4.821251869E+01     3.286676703E+01     5.000000000E+00
! ... 2207 like lines cut
/wb,elem,start            !  set before creation of elements
/com,*********** Elements for Body 1 "model-FreeParts" ***********
et,1,186
keyo,1,2,1          ! set full integration on SOLID186
eblock,19,solid,,348
(19i9)
        1        1        1        1        0        0        0        0       20        0        1       16       75       30       31      247      188      233      232
      717      779      776      714     1380     1379     1469     1470      718      973      780      785
        1        1        1        1        0        0        0        0       20        0        2       16       31       30       75      278      293      292      337
      714      776      779      717     1554     1588     1591     1557      719      786      781      974
        1        1        1        1        0        0        0        0       20        0        3       30       75      596      595      233      188      601      600
      779      975     2162      782     1379     1381     2170     1471      780      973     2164     2163
        1        1        1        1        0        0        0        0       20        0        4       30      595      596       75      292      413      412      337
      782     2162      975      779     1592     1851     1695     1591      781     1854     1852      974
        1        1        1        1        0        0        0        0       20        0        5       30      595      594       73      233      600      599      190
      782     2160      968      778     1471     2169     1389     1388      780     2163     2161      966
        1        1        1        1        0        0        0        0       20        0        6       30       73      594      595      292      335      414      413
      778      968     2160      782     1590     1692     1853     1592      781      967     1856     1854
        1        1        1        1        0        0        0        0       20        0        7        8       60       59       18      255      203      204      245
      677      907      727      676     1422     1421     1425     1494      678      912      908      729
        1        1        1        1        0        0        0        0       20        0        8        8       18       59       60      270      280      321      322
      676      727      907      677     1532     1563     1661     1533      679      730      909      913
        1        1        1        1        0        0        0        0       20        0        9       17       18       59       58      246      245      204      205
      720      727      902      721     1493     1425     1424     1427      724      729      908      904
        1        1        1        1        0        0        0        0       20        0       10       17       58       59       18      279      320      321      280
      721      902      727      720     1559     1658     1563     1558      725      905      909      730
! ... 677 like lines cut
!Material Id = {B7427909-EF73-4A8D-8D64-B3E4BEC2ED39}
/wb,elem,end               !  done creating elements
/com,*********** Send User Defined Coordinate System(s) ***********
csys,0
toffst,273.15,  ! Temperature offset from absolute zero
/com,*********** Set Reference Temperature ***********
tref,22.
/wb,mat,start              !  starting to send materials
/com,*********** Send Materials ***********
MP,EX,1,230000,	! tonne s^-2 mm^-1
MP,NUXY,1,0.3,

/wb,mat,end                !  done sending materials
!************************* Model Summary ********************
!model-FreeParts,	Steel,	matid,	1
!************************* End Model Summary ********************
! get the diagonal of the bounding box. Needed later for other things
*get,_xmin,node,,mnloc,x
*get,_ymin,node,,mnloc,y
*get,_zmin,node,,mnloc,z
*get,_xmax,node,,mxloc,x
*get,_ymax,node,,mxloc,y
*get,_zmax,node,,mxloc,z
_ASMDIAG=(_xmax-_xmin)*(_xmax-_xmin)+(_ymax-_ymin)*(_ymax-_ymin)+(_zmax-_zmin)*(_zmax-_zmin)
_ASMDIAG=SQRT(_ASMDIAG)
/wb,contact,start          !  starting to send contact
/wb,contact,end            !  done creating contacts
/golist
/wb,load,start             !  starting to send loads
/com,*********** Fixed Supports ***********
CMBLOCK,_FIXEDSU,NODE,      101
(8i10)
       434       435       436       437       438       439       440       441
       442       443       444       445       446       534       535       536
       537       538       539       540       541       542       543       544
       545       546       547       548       549       550       551       552
       553       554       555       556       557       558       559      1896
      1897      1898      1899      1900      1901      1902      1903      1904
      1905      1906      1907      1908      1909      1910      1911      1912
      1913      1914      1915      1916      1917      1918      1919      1921
      2068      2069      2070      2071      2072      2073      2074      2075
      2076      2077      2078      2079      2080      2081      2082      2083
      2084      2085      2086      2087      2088      2089      2090      2091
      2092      2093      2094      2095      2096      2097      2098      2099
      2100      2101      2102      2103      2104
cmsel,s,_FIXEDSU
d,all,all
nsel,all
/com,*********** Define Force Using Surface Effect Elements ***********
local,12,0,0.,0.,0.,0.,0.,0.
csys,0
et,2,154
eblock,10,,,24
(15i9)
      861        2        2        2       12      497      476      498      499     1980     1981     2014     2013
      862        2        2        2       12      496      477      476      497     1983     1979     1980     2012
      863        2        2        2       12      495      478      477      496     1985     1982     1983     2011
      864        2        2        2       12      494      479      478      495     1987     1984     1985     2010
      865        2        2        2       12      493      480      479      494     1989     1986     1987     2009
      866        2        2        2       12      492      481      480      493     1991     1988     1989     2008
      867        2        2        2       12      491      482      481      492     1993     1990     1991     2007
      868        2        2        2       12      490      483      482      491     1995     1992     1993     2006
      869        2        2        2       12      489      484      483      490     1997     1994     1995     2005
      870        2        2        2       12      488      485      484      489     1999     1996     1997     2004
      871        2        2        2       12      487      486      485      488     2000     1998     1999     2002
      872        2        2        2       12      500      501      486      487     2017     2001     2000     2003
      873        2        2        2       12      476      474      475      498     1977     1976     1978     1981
      874        2        2        2       12      477      473      474      476     1975     1974     1977     1979
      875        2        2        2       12      478      472      473      477     1973     1972     1975     1982
      876        2        2        2       12      479      471      472      478     1971     1970     1973     1984
      877        2        2        2       12      480      470      471      479     1969     1968     1971     1986
      878        2        2        2       12      481      469      470      480     1967     1966     1969     1988
      879        2        2        2       12      482      468      469      481     1965     1964     1967     1990
      880        2        2        2       12      483      467      468      482     1963     1962     1965     1992
! ... 5 like lines cut
esel,s,type,,2
keyop,2,2,1                ! Apply load in local coordinate system
keyop,2,7,1                ! Use original area so load is constant in large deformation
keyop,2,11,2               ! Use real and not project area
esel,all
/gst,on,on
fini
*get,_numnode,node,0,count
*get,_numelem,elem,0,count
*get, _MAXELEMNUM, elem, 0, NUM, MAX
*get, _MAXNODENUM, node, 0, NUM, MAX
*get, _MAXELEMTYPE, etyp, 0, NUM, MAX
*get, _MAXREALCONST, real, 0, NUM, MAX
/go
/wb,load,end               !  done creating loads
/com,--- Number of total nodes = %_numnode%
/com,--- Number of contact elements = 24
/com,--- Number of spring elements = 0
/com,--- Number of bearing elements = 0
/com,--- Number of solid elements = 348
/com,--- Number of condensed parts = 0
/com,--- Number of total elements = %_numelem%
*get,_wallbsol,active,,time,wall
/com,****************************************************************************
/com,*************************    SOLUTION       ********************************
/com,****************************************************************************
/solu
antype,0                   ! static analysis
eqsl,sparse,,,,,1
cntr,print,1               ! print out contact info and also make no initial contact an error
dmpoption,emat,no             ! Don't combine emat file for DANSYS
dmpoption,esav,no             ! Don't combine esav file for DANSYS
nldiag,cont,iter           ! print out contact info each equilibrium iteration
rescontrol,,none                 ! Do not keep any restart files
/com,****************************************************
/com,******************* SOLVE FOR LS 1 OF 1 ****************
esel,s,type,,2
nsle
sfe,all,1,pres,1,200.000000000015
sfe,all,2,pres,1,0.
sfe,all,3,pres,1,0.
nsel,all
esel,all
/nopr
/gopr
nsub,1,1,1
time,1.
outres,erase
outres,all,none
outres,nsol,all,
outres,rsol,all
outres,strs,all,
outres,eangl,all
outres,fmag,all
outres,curd,all
outres,nldat,all
outres,eheat,all
outres,etmp,all
outres,srfs,all
outres,cont,all
outres,bkstr,all
outres,veng,all
outres,epel,all,
outres,eppl,all,
stabilize,off                   ! Stabilization turned OFF by user
! *********** WB SOLVE COMMAND ***********
! check interactive state
*get,ANSINTER_,active,,int
*if,ANSINTER_,ne,0,then
/eof
*endif
solve
/com *************** Write FE CONNECTORS ********* 
CEWRITE,file,ce,,INTE
/com,****************************************************
/com,*************** FINISHED SOLVE FOR LS 1 *************
*get,_wallasol,active,,time,wall
/nopr
*get,_numnode,node,0,count
*get,_numelem,elem,0,count
*get, _MAXELEMNUM, elem, 0, NUM, MAX
*get, _MAXNODENUM, node, 0, NUM, MAX,,,INTERNAL
*get, _MAXELEMTYPE, etyp, 0, NUM, MAX
*get, _MAXREALCONST, real, 0, NUM, MAX
/gopr
/post1
xmlo,ENCODING,ISO-8859-1
xmlo,parm
/xml,parm,xml
fini
/gopr
*get,_walldone,active,,time,wall
_preptime=(_wallbsol-_wallstrt)*3600
_solvtime=(_wallasol-_wallbsol)*3600
_posttime=(_walldone-_wallasol)*3600
_totaltim=(_walldone-_wallstrt)*3600
*get,_dlbratio,active,0,solu,dlbr
/com,--- Number of total nodes = %_numnode%
/com,--- Number of total elements = %_numelem%
/com,--- Element load balance ratio = %_dlbratio%
/wb,file,end               ! done with WB generated input
