/batch
/config,noeldb,1     ! force off writing results to database
*get,_wallstrt,active,,time,wall
! ANSYS input file written by Workbench version 2019 R1
! File used for geometry attach: C:\Users\HARSH\OneDrive\Desktop\IIT ROPAR\Skills\Ansys\Prac3\bar analysis_files\dp0\SYS\DM\SYS.scdoc
/title,bar analysis--Static Structural (A5)
*DIM,_wb_ProjectScratch_dir,string,248
_wb_ProjectScratch_dir(1) = 'C:\Users\HARSH\OneDrive\Desktop\IIT ROPAR\Skills\Ansys\Prac3\_ProjectScratch\Scr9C0F\'
*DIM,_wb_SolverFiles_dir,string,248
_wb_SolverFiles_dir(1) = 'C:\Users\HARSH\OneDrive\Desktop\IIT ROPAR\Skills\Ansys\Prac3\bar analysis_files\dp0\SYS\MECH\'
*DIM,_wb_userfiles_dir,string,248
_wb_userfiles_dir(1) = 'C:\Users\HARSH\OneDrive\Desktop\IIT ROPAR\Skills\Ansys\Prac3\bar analysis_files\user_files\'
/com,--- Data in consistent NMM units. See Solving Units in the help system for more information.
/units,MPA
/nopr
/wb,file,start              !  signify a WB generated input file
/prep7
! Turn off shape checking because checks already performed inside WB mesher.
! See help system for more information.
SHPP,OFF,,NOWARN
/nolist
etcon,set             ! allow ANSYS to choose best KEYOP's for 180x elements
/com,*********** Nodes for the whole assembly ***********
nblock,3,,2328
(1i9,3e20.9e3)
        1     5.000000000E+01     5.000000000E+01     5.000000000E+01
        2     5.000000000E+01     1.000000000E+02     5.000000000E+01
        3     5.000000000E+01     1.500000000E+02     5.000000000E+01
        4     1.000000000E+02     5.000000000E+01     5.000000000E+01
        5     1.000000000E+02     1.000000000E+02     5.000000000E+01
        6     1.000000000E+02     1.500000000E+02     5.000000000E+01
        7     1.500000000E+02     5.000000000E+01     5.000000000E+01
        8     1.500000000E+02     1.000000000E+02     5.000000000E+01
        9     1.500000000E+02     1.500000000E+02     5.000000000E+01
       10     2.000000000E+02     5.000000000E+01     5.000000000E+01
       11     2.000000000E+02     1.000000000E+02     5.000000000E+01
       12     2.000000000E+02     1.500000000E+02     5.000000000E+01
       13     2.500000000E+02     5.000000000E+01     5.000000000E+01
       14     2.500000000E+02     1.000000000E+02     5.000000000E+01
       15     2.500000000E+02     1.500000000E+02     5.000000000E+01
       16     3.000000000E+02     5.000000000E+01     5.000000000E+01
       17     3.000000000E+02     1.000000000E+02     5.000000000E+01
       18     3.000000000E+02     1.500000000E+02     5.000000000E+01
       19     3.500000000E+02     5.000000000E+01     5.000000000E+01
       20     3.500000000E+02     1.000000000E+02     5.000000000E+01
! ... 2098 like lines cut
/wb,elem,start            !  set before creation of elements
/com,*********** Elements for Body 1 "SYS\Solid" ***********
et,1,186
keyo,1,2,1          ! set full integration on SOLID186
eblock,19,solid,,320
(19i9)
        1        1        1        1        0        0        0        0       20        0        1        1      530      608      610      234      569      609      615
      620     1993     2109      621     1400     2070     2110     1401      618     1992     2108     2112
        1        1        1        1        0        0        0        0       20        0        2        1      610      608      530      235      354      355      356
      621     2109     1993      620     1404     1683     1685     1405      619     1684     1686     1688
        1        1        1        1        0        0        0        0       20        0        3        1        4      531      530      234      231      570      569
      617      636     1991      620     1393     1394     2069     1400      618      634     1995     1992
        1        1        1        1        0        0        0        0       20        0        4        1      530      531        4      235      356      357      238
      620     1991      636      617     1405     1687     1414     1403      619     1688     1690      635
        1        1        1        1        0        0        0        0       20        0        5        4        7      532      531      231      228      571      570
      633      649     1994      636     1386     1387     2071     1394      634      647     1997     1995
        1        1        1        1        0        0        0        0       20        0        6        4      531      532        7      238      357      358      241
      636     1994      649      633     1414     1689     1421     1413      635     1690     1692      648
        1        1        1        1        0        0        0        0       20        0        7        7       10      533      532      228      225      572      571
      646      662     1996      649     1379     1380     2072     1387      647      660     1999     1997
        1        1        1        1        0        0        0        0       20        0        8        7      532      533       10      241      358      359      244
      649     1996      662      646     1421     1691     1428     1420      648     1692     1694      661
        1        1        1        1        0        0        0        0       20        0        9       10       13      534      533      225      222      573      572
      659      675     1998      662     1372     1373     2073     1380      660      673     2001     1999
        1        1        1        1        0        0        0        0       20        0       10       10      533      534       13      244      359      360      247
      662     1998      675      659     1428     1693     1435     1427      661     1694     1696      674
! ... 621 like lines cut
!Material Id = {1D29E121-27B7-427D-B82C-3D70A8099792}
/wb,elem,end               !  done creating elements
/com,*********** Send User Defined Coordinate System(s) ***********
csys,0
toffst,273.15,  ! Temperature offset from absolute zero
/com,*********** Set Reference Temperature ***********
tref,22.
/wb,mat,start              !  starting to send materials
/com,*********** Send Materials ***********
Temperature = 'TEMP' ! Temperature
MP,DENS,1,2.77e-09,	! tonne mm^-3
MP,ALPX,1,2.3e-05,	! C^-1
MP,C,1,875000000,	! mm^2 s^-2 C^-1
MPTEMP,,,,,,,,
MPTEMP,1,-100
MPTEMP,2,0
MPTEMP,3,100
MPTEMP,4,200
MPDATA,KXX,1, ,114,144,165,175,	! tonne mm s^-3 C^-1
MPTEMP,,,,,,,,
MPTEMP,,,,,,,,
MPTEMP,1,0
MPTEMP,2,20
MPTEMP,3,100
MPDATA,RSVX,1, ,2.43e-05,2.67e-05,3.63e-05,	! ohm mm
MPTEMP,,,,,,,,
MP,EX,1,71000,	! tonne s^-2 mm^-1
MP,NUXY,1,0.33,
MP,MURX,1,1,

/wb,mat,end                !  done sending materials
!************************* Model Summary ********************
!SYS\Solid,	Aluminum Alloy,	matid,	1
!************************* End Model Summary ********************
! get the diagonal of the bounding box. Needed later for other things
*get,_xmin,node,,mnloc,x
*get,_ymin,node,,mnloc,y
*get,_zmin,node,,mnloc,z
*get,_xmax,node,,mxloc,x
*get,_ymax,node,,mxloc,y
*get,_zmax,node,,mxloc,z
_ASMDIAG=(_xmax-_xmin)*(_xmax-_xmin)+(_ymax-_ymin)*(_ymax-_ymin)+(_zmax-_zmin)*(_zmax-_zmin)
_ASMDIAG=SQRT(_ASMDIAG)
/wb,contact,start          !  starting to send contact
/wb,contact,end            !  done creating contacts
/golist
/wb,load,start             !  starting to send loads
/com,*********** Fixed Supports ***********
CMBLOCK,_FIXEDSU,NODE,       74
(8i10)
       352       353       354       355       395       396       397       398
       416       421       474       475       520       521       522       523
       524       525       526       527       528       529       608       609
       610       611       612       613       614       615      1678      1679
      1680      1681      1682      1683      1684      1686      1765      1766
      1767      1768      1769      1770      1771      1772      1808      1818
      1907      1908      1909      1976      1977      1978      1979      1980
      1981      1982      1983      1984      1985      1986      1987      1988
      2108      2109      2110      2111      2112      2113      2114      2115
      2116      2117
cmsel,s,_FIXEDSU
d,all,all
nsel,all
/com,*********** Define Force Using Surface Effect Elements ***********
local,12,0,0.,0.,0.,0.,0.,0.
csys,0
et,2,154
eblock,10,,,8
(15i9)
      817        2        2        2       12      485      478      483      484     1915     1914     1921     1922
      818        2        2        2       12      420      419      478      485     1814     1815     1915     1816
      819        2        2        2       12      478      479      482      483     1913     1917     1920     1914
      820        2        2        2       12      419      418      479      478     1812     1813     1913     1815
      821        2        2        2       12      479      480      481      482     1916     1918     1919     1917
      822        2        2        2       12      418      417      480      479     1809     1811     1916     1813
      823        2        2        2       12      480      477      476      481     1912     1910     1911     1918
      824        2        2        2       12      417      439      477      480     1810     1853     1912     1811
-1
esel,s,type,,2
keyop,2,2,1                ! Apply load in local coordinate system
keyop,2,7,1                ! Use original area so load is constant in large deformation
keyop,2,11,2               ! Use real and not project area
esel,all
/gst,on,on
fini
*get,_numnode,node,0,count
*get,_numelem,elem,0,count
*get, _MAXELEMNUM, elem, 0, NUM, MAX
*get, _MAXNODENUM, node, 0, NUM, MAX
*get, _MAXELEMTYPE, etyp, 0, NUM, MAX
*get, _MAXREALCONST, real, 0, NUM, MAX
/go
/wb,load,end               !  done creating loads
/com,--- Number of total nodes = %_numnode%
/com,--- Number of contact elements = 8
/com,--- Number of spring elements = 0
/com,--- Number of bearing elements = 0
/com,--- Number of solid elements = 320
/com,--- Number of condensed parts = 0
/com,--- Number of total elements = %_numelem%
*get,_wallbsol,active,,time,wall
/com,****************************************************************************
/com,*************************    SOLUTION       ********************************
/com,****************************************************************************
/solu
antype,0                   ! static analysis
eqsl,sparse,,,,,1
cntr,print,1               ! print out contact info and also make no initial contact an error
dmpoption,emat,no             ! Don't combine emat file for DANSYS
dmpoption,esav,no             ! Don't combine esav file for DANSYS
nldiag,cont,iter           ! print out contact info each equilibrium iteration
rescontrol,,none                 ! Do not keep any restart files
/com,****************************************************
/com,******************* SOLVE FOR LS 1 OF 1 ****************
esel,s,type,,2
nsle
sfe,all,1,pres,1,0.
sfe,all,2,pres,1,-1.00000000000008
sfe,all,3,pres,1,0.
nsel,all
esel,all
/nopr
/gopr
nsub,1,1,1
time,1.
outres,erase
outres,all,none
outres,nsol,all,
outres,rsol,all
outres,strs,all,
outres,eangl,all
outres,fmag,all
outres,curd,all
outres,nldat,all
outres,eheat,all
outres,etmp,all
outres,srfs,all
outres,cont,all
outres,bkstr,all
outres,veng,all
outres,epel,all,
outres,eppl,all,
stabilize,off                   ! Stabilization turned OFF by user
! *********** WB SOLVE COMMAND ***********
! check interactive state
*get,ANSINTER_,active,,int
*if,ANSINTER_,ne,0,then
/eof
*endif
solve
/com *************** Write FE CONNECTORS ********* 
CEWRITE,file,ce,,INTE
/com,****************************************************
/com,*************** FINISHED SOLVE FOR LS 1 *************
*get,_wallasol,active,,time,wall
/nopr
*get,_numnode,node,0,count
*get,_numelem,elem,0,count
*get, _MAXELEMNUM, elem, 0, NUM, MAX
*get, _MAXNODENUM, node, 0, NUM, MAX,,,INTERNAL
*get, _MAXELEMTYPE, etyp, 0, NUM, MAX
*get, _MAXREALCONST, real, 0, NUM, MAX
/gopr
/post1
xmlo,ENCODING,ISO-8859-1
xmlo,parm
/xml,parm,xml
fini
/gopr
*get,_walldone,active,,time,wall
_preptime=(_wallbsol-_wallstrt)*3600
_solvtime=(_wallasol-_wallbsol)*3600
_posttime=(_walldone-_wallasol)*3600
_totaltim=(_walldone-_wallstrt)*3600
*get,_dlbratio,active,0,solu,dlbr
/com,--- Number of total nodes = %_numnode%
/com,--- Number of total elements = %_numelem%
/com,--- Element load balance ratio = %_dlbratio%
/wb,file,end               ! done with WB generated input
