/batch
/config,noeldb,1     ! force off writing results to database
*get,_wallstrt,active,,time,wall
! ANSYS input file written by Workbench version 2019 R1
! File used for geometry attach: C:\Users\HARSH\Downloads\Crane hook.IGS
/title,unsaved_project--Static Structural (A5)
*DIM,_wb_ProjectScratch_dir,string,248
_wb_ProjectScratch_dir(1) = 'C:\Users\HARSH\AppData\Local\Temp\WB_HARSH-SHAH_HARSH_20744_2\_ProjectScratch\ScrF214\'
*DIM,_wb_SolverFiles_dir,string,248
_wb_SolverFiles_dir(1) = 'C:\Users\HARSH\AppData\Local\Temp\WB_HARSH-SHAH_HARSH_20744_2\unsaved_project_files\dp0\SYS\MECH\'
*DIM,_wb_userfiles_dir,string,248
_wb_userfiles_dir(1) = 'C:\Users\HARSH\AppData\Local\Temp\WB_HARSH-SHAH_HARSH_20744_2\unsaved_project_files\user_files\'
/com,--- Data in consistent MKS units. See Solving Units in the help system for more information.
/units,MKS
/nopr
/wb,file,start              !  signify a WB generated input file
/prep7
! Turn off shape checking because checks already performed inside WB mesher.
! See help system for more information.
SHPP,OFF,,NOWARN
/nolist
etcon,set             ! allow ANSYS to choose best KEYOP's for 180x elements
/com,*********** Nodes for the whole assembly ***********
nblock,3,,11292
(1i9,3e20.9e3)
        1    -4.698633921E-02     0.000000000E+00    -4.491418428E-02
        2    -4.111119041E-02     0.000000000E+00    -4.500000715E-02
        3    -4.667372217E-02     1.053226882E-02    -3.493325444E-02
        4    -4.675915657E-02     3.119690712E-03    -3.766092763E-02
        5    -4.376400663E-02     1.024398339E-02    -3.498645589E-02
        6    -4.230919721E-02     1.010295285E-02    -3.499764817E-02
        7    -4.085439155E-02     9.964273131E-03    -3.499974830E-02
        8    -3.503482813E-02     9.436995565E-03    -3.493397729E-02
        9    -2.921383910E-02     8.962963850E-03    -3.478672370E-02
       10    -2.339029048E-02     8.554813214E-03    -3.460209488E-02
       11    -1.756321353E-02     8.223677866E-03    -3.441750242E-02
       12    -1.173178833E-02     7.979279988E-03    -3.426304325E-02
       13    -5.895398661E-03     7.829054168E-03    -3.416092065E-02
       14    -5.365526516E-05     7.777782074E-03    -3.412486469E-02
       15     5.793585847E-03     7.827303233E-03    -3.415969996E-02
       16     1.164583923E-02     7.976368681E-03    -3.426111587E-02
       17     1.749528166E-02     8.220313824E-03    -3.441547894E-02
       18     2.333968555E-02     8.551589382E-03    -3.460044282E-02
       19     2.917914612E-02     8.960311028E-03    -3.478569540E-02
       20     3.501349706E-02     9.435136005E-03    -3.493355847E-02
! ... 10247 like lines cut
/wb,elem,start            !  set before creation of elements
/com,*********** Elements for Body 1 "Crane hook-FreeParts" ***********
et,1,187
eblock,19,solid,,5597
(19i9)
        1        1        1        1        0        0        0        0       10        0        1     1006     1007     1008     1692     7495     7503     7496     7502
     7508     7515
        1        1        1        1        0        0        0        0       10        0        2     1006     1692     1375     1517     7502     9195     7498     7500
    10016     9189
        1        1        1        1        0        0        0        0       10        0        3     1006     1692     1008     1375     7502     7515     7496     7498
     9195     7510
        1        1        1        1        0        0        0        0       10        0        4     1008     1541     1692     1687     7512    10095     7515     7514
    10094    10266
        1        1        1        1        0        0        0        0       10        0        5     1008     1375     1692     1541     7510     9195     7515     7512
     9192    10095
        1        1        1        1        0        0        0        0       10        0        6     1541     1558     1692     1634    10092    10153    10095    10093
    10152    10231
        1        1        1        1        0        0        0        0       10        0        7     1375     1692     1541     1558     9195    10095     9192     9193
    10153    10092
        1        1        1        1        0        0        0        0       10        0        8      112     1007     1692     1008     2441     7508     2455     2442
     7503     7515
        1        1        1        1        0        0        0        0       10        0        9     1541     1634     1692     1687    10093    10231    10095    10094
    10230    10266
        1        1        1        1        0        0        0        0       10        0       10     1517     1692     1558     1634    10016    10153    10008    10015
    10231    10152
! ... 11175 like lines cut
!Material Id = {A988BCE7-9904-4B1C-A3C1-6ED75D93953B}
/wb,elem,end               !  done creating elements
/com,*********** Send User Defined Coordinate System(s) ***********
csys,0
toffst,273.15,  ! Temperature offset from absolute zero
/com,*********** Set Reference Temperature ***********
tref,22.
/wb,mat,start              !  starting to send materials
/com,*********** Send Materials ***********
MP,EX,1,233000000000,	! Pa
MP,NUXY,1,0.28,

/wb,mat,end                !  done sending materials
!************************* Model Summary ********************
!Crane hook-FreeParts,	HSS,	matid,	1
!************************* End Model Summary ********************
! get the diagonal of the bounding box. Needed later for other things
*get,_xmin,node,,mnloc,x
*get,_ymin,node,,mnloc,y
*get,_zmin,node,,mnloc,z
*get,_xmax,node,,mxloc,x
*get,_ymax,node,,mxloc,y
*get,_zmax,node,,mxloc,z
_ASMDIAG=(_xmax-_xmin)*(_xmax-_xmin)+(_ymax-_ymin)*(_ymax-_ymin)+(_zmax-_zmin)*(_zmax-_zmin)
_ASMDIAG=SQRT(_ASMDIAG)
/wb,contact,start          !  starting to send contact
/wb,contact,end            !  done creating contacts
/golist
/wb,load,start             !  starting to send loads
/com,*********** Fixed Supports ***********
CMBLOCK,_FIXEDSU,NODE,      108
(8i10)
        45        46        47        48       106       109       110       111
       115       116       117       118       119       120       121       122
       123       124       125       126       127       128      1275      1276
      1277      1278      1279      1280      1281      1282      2002      2004
      2005      2007      2009      2010      2011      2014      2017      2020
      2025      2397      2398      2399      2400      2401      2420      2422
      2423      2426      2428      2432      2435      2436      2481      2482
      2483      2484      2485      2487      2488      2489      2490      2493
      2494      2495      2496      2498      2499      2500      2501      2503
      2504      2505      2506      2507      2508      2509      2512      2513
      2514      2515      2516      2517      2518      2519      2520      2521
      2522      2523      2525      2526      2527      2528      2529      2532
      2534      2539      2540      2543      2545      2549      8711      8713
      8717      8721      8723      8725
cmsel,s,_FIXEDSU
d,all,all
nsel,all
/com,*********** Define Force Using Surface Effect Elements ***********
local,12,0,0.,0.,0.,0.,0.,0.
csys,0
et,2,154
eblock,10,,,140
(15i9)
     8164        2        2        2       12     1091     1097     1110     1110     7892     7940     1110     7894
     8165        2        2        2       12     1090     1095     1113     1113     7881     7925     1113     7883
     8166        2        2        2       12     1097     1114     1110     1110     7941     7997     1110     7940
     8167        2        2        2       12     1094     1099     1100     1100     7915     7953     1100     7916
     8168        2        2        2       12     1092     1101     1123     1123     7899     7966     1123     7904
     8169        2        2        2       12     1092     1104     1101     1101     7900     7965     1101     7899
     8170        2        2        2       12     1098     1116     1111     1111     7947     8002     1111     7946
     8171        2        2        2       12     1091     1112     1103     1103     7895     7976     1103     7893
     8172        2        2        2       12     1092     1107     1120     1120     7902     7986     1120     7903
     8173        2        2        2       12     1091     1103     1097     1097     7893     7938     1097     7892
     8174        2        2        2       12     1104     1105     1109     1109     7979     7982     1109     7980
     8175        2        2        2       12     1103     1106     1097     1097     7975     7939     1097     7938
     8176        2        2        2       12     1096     1111     1126     1126     7931     8004     1126     7934
     8177        2        2        2       12      377     1109      376      376     4145     4139      376     4134
     8178        2        2        2       12     1102     1103     1112     1112     7970     7976     1112     7972
     8179        2        2        2       12     1108     1117     1115     1115     7993     8016     1115     7992
     8180        2        2        2       12     1094     1121     1099     1099     7919     7954     1099     7915
     8181        2        2        2       12     1093     1106     1103     1103     7911     7975     1103     7910
     8182        2        2        2       12     1094     1110     1114     1114     7917     7997     1114     7918
     8183        2        2        2       12     1095     1099     1121     1121     7924     7954     1121     7927
! ... 121 like lines cut
esel,s,type,,2
keyop,2,2,1                ! Apply load in local coordinate system
keyop,2,7,1                ! Use original area so load is constant in large deformation
keyop,2,11,2               ! Use real and not project area
esel,all
/gst,on,on
fini
*get,_numnode,node,0,count
*get,_numelem,elem,0,count
*get, _MAXELEMNUM, elem, 0, NUM, MAX
*get, _MAXNODENUM, node, 0, NUM, MAX
*get, _MAXELEMTYPE, etyp, 0, NUM, MAX
*get, _MAXREALCONST, real, 0, NUM, MAX
/go
/wb,load,end               !  done creating loads
/com,--- Number of total nodes = %_numnode%
/com,--- Number of contact elements = 140
/com,--- Number of spring elements = 0
/com,--- Number of bearing elements = 0
/com,--- Number of solid elements = 5597
/com,--- Number of condensed parts = 0
/com,--- Number of total elements = %_numelem%
*get,_wallbsol,active,,time,wall
/com,****************************************************************************
/com,*************************    SOLUTION       ********************************
/com,****************************************************************************
/solu
antype,0                   ! static analysis
eqsl,pcg,1e-8,,,,,,1
cntr,print,1               ! print out contact info and also make no initial contact an error
dmpoption,emat,no             ! Don't combine emat file for DANSYS
dmpoption,esav,no             ! Don't combine esav file for DANSYS
nldiag,cont,iter           ! print out contact info each equilibrium iteration
rescontrol,,none                 ! Do not keep any restart files
/com,****************************************************
/com,******************* SOLVE FOR LS 1 OF 1 ****************
esel,s,type,,2
nsle
sfe,all,1,pres,1,0.
sfe,all,2,pres,1,-35760.5620207361
sfe,all,3,pres,1,0.
nsel,all
esel,all
/nopr
/gopr
nsub,1,1,1
time,1.
outres,erase
outres,all,none
outres,nsol,all,
outres,rsol,all
outres,strs,all,
outres,eangl,all
outres,fmag,all
outres,curd,all
outres,nldat,all
outres,eheat,all
outres,etmp,all
outres,srfs,all
outres,cont,all
outres,bkstr,all
outres,veng,all
outres,epel,all,
outres,eppl,all,
stabilize,off                   ! Stabilization turned OFF by user
! *********** WB SOLVE COMMAND ***********
! check interactive state
*get,ANSINTER_,active,,int
*if,ANSINTER_,ne,0,then
/eof
*endif
solve
/com *************** Write FE CONNECTORS ********* 
CEWRITE,file,ce,,INTE
/com,****************************************************
/com,*************** FINISHED SOLVE FOR LS 1 *************
*get,_wallasol,active,,time,wall
/nopr
*get,_numnode,node,0,count
*get,_numelem,elem,0,count
*get, _MAXELEMNUM, elem, 0, NUM, MAX
*get, _MAXNODENUM, node, 0, NUM, MAX,,,INTERNAL
*get, _MAXELEMTYPE, etyp, 0, NUM, MAX
*get, _MAXREALCONST, real, 0, NUM, MAX
/gopr
*get,_PCGITER,active,,solu,cgiter
/post1
xmlo,ENCODING,ISO-8859-1
xmlo,parm
/xml,parm,xml
fini
/gopr
*get,_walldone,active,,time,wall
_preptime=(_wallbsol-_wallstrt)*3600
_solvtime=(_wallasol-_wallbsol)*3600
_posttime=(_walldone-_wallasol)*3600
_totaltim=(_walldone-_wallstrt)*3600
*get,_dlbratio,active,0,solu,dlbr
/com,--- Number of total nodes = %_numnode%
/com,--- Number of total elements = %_numelem%
/com,--- Element load balance ratio = %_dlbratio%
/wb,file,end               ! done with WB generated input
